powerfulcases/cases/matpower/case3375wp/case3375wp.raw
0, 100, 33, 0, 0, 60  / 28-Jan-2026 21:52:09 - MATPOWER 8.1


 10000, 'BUS 10000   ',       400, 1,    0,    0, 1,     1.04687,   -10.70488, 1.05, 0.95, 1.05, 0.95
 10001, 'BUS 10001   ',       400, 1,    0,    0, 1,     1.04837,   -15.04781, 1.05, 0.95, 1.05, 0.95
 10002, 'BUS 10002   ',       220, 1,    0,    0, 1,     1.07251,   -16.96552, 1.11, 0.95, 1.11, 0.95
 10003, 'BUS 10003   ',       400, 1,    0,    0, 1,     1.04525,   -17.93119, 1.05, 0.95, 1.05, 0.95
 10004, 'BUS 10004   ',       400, 1,    0,    0, 1,     1.04396,   -13.97333, 1.05, 0.95, 1.05, 0.95
 10005, 'BUS 10005   ',       400, 1,    0,    0, 1,     1.04437,   -16.49872, 1.05, 0.95, 1.05, 0.95
 10006, 'BUS 10006   ',       400, 1,    0,    0, 1,     1.04078,    -9.90352, 1.05, 0.95, 1.05, 0.95
 10007, 'BUS 10007   ',       220, 1,    0,    0, 1,     1.07323,   -15.91864, 1.11, 0.95, 1.11, 0.95
 10008, 'BUS 10008   ',       220, 1,    0,    0, 1,     1.07074,   -18.07504, 1.11, 0.95, 1.11, 0.95
 10009, 'BUS 10009   ',       400, 1,    0,    0, 1,     1.04438,   -17.28051, 1.05, 0.95, 1.05, 0.95
 10010, 'BUS 10010   ',       400, 1,    0,    0, 1,     1.04912,   -12.07385, 1.05, 0.95, 1.05, 0.95
 10011, 'BUS 10011   ',       400, 1,    0,    0, 1,     1.04471,   -18.59454, 1.05, 0.95, 1.05, 0.95
 10012, 'BUS 10012   ',       400, 1,    0,    0, 1,     1.04471,   -18.59454, 1.05, 0.95, 1.05, 0.95
 10013, 'BUS 10013   ',       400, 1,    0,    0, 1,     1.04559,   -12.19767, 1.05, 0.95, 1.05, 0.95
 10014, 'BUS 10014   ',       400, 1,    0,    0, 1,      1.0458,   -12.22917, 1.05, 0.95, 1.05, 0.95
 10015, 'BUS 10015   ',       400, 1,    0,    0, 1,      1.0447,   -18.15425, 1.05, 0.95, 1.05, 0.95
 10016, 'BUS 10016   ',       400, 1,    0,    0, 1,     1.04578,   -12.11669, 1.05, 0.95, 1.05, 0.95
 10017, 'BUS 10017   ',       400, 1,    0,    0, 1,     1.04572,   -12.12076, 1.05, 0.95, 1.05, 0.95
 10018, 'BUS 10018   ',       400, 1,    0,    0, 1,      1.0457,   -12.11351, 1.05, 0.95, 1.05, 0.95
 10019, 'BUS 10019   ',       400, 1,    0,    0, 1,      1.0458,    -12.2292, 1.05, 0.95, 1.05, 0.95
 10020, 'BUS 10020   ',       400, 1,    0,    0, 1,        1.05,   -14.07745, 1.05, 0.95, 1.05, 0.95
 10021, 'BUS 10021   ',       220, 1,    0,    0, 1,     1.07631,   -16.60737, 1.11, 0.95, 1.11, 0.95
 10022, 'BUS 10022   ',       220, 1,    0,    0, 1,     1.07483,   -17.01984, 1.11, 0.95, 1.11, 0.95
 10023, 'BUS 10023   ',       400, 1,    0,    0, 1,     1.04582,   -11.75662, 1.05, 0.95, 1.05, 0.95
 10024, 'BUS 10024   ',       400, 1,    0,    0, 1,     1.04557,   -11.85608, 1.05, 0.95, 1.05, 0.95
 10025, 'BUS 10025   ',       400, 1,    0,    0, 1,     1.04573,    -11.8032, 1.05, 0.95, 1.05, 0.95
 10026, 'BUS 10026   ',       400, 1,    0,    0, 1,     1.04137,    -8.03514, 1.05, 0.95, 1.05, 0.95
 10027, 'BUS 10027   ',       400, 1,    0,    0, 1,     1.04176,    -7.76212, 1.05, 0.95, 1.05, 0.95
 10028, 'BUS 10028   ',       400, 1,    0,    0, 1,     1.04187,    -7.56465, 1.05, 0.95, 1.05, 0.95
 10029, 'BUS 10029   ',       400, 1,    0,    0, 1,     1.04913,    -11.5362, 1.05, 0.95, 1.05, 0.95
 10030, 'BUS 10030   ',       400, 1,    0,    0, 1,     1.04912,   -11.53101, 1.05, 0.95, 1.05, 0.95
 10031, 'BUS 10031   ',       220, 1,    0,    0, 1,     1.08683,   -11.59324, 1.11, 0.95, 1.11, 0.95
 10032, 'BUS 10032   ',       400, 1,    0,    0, 1,     1.04142,    -8.05065, 1.05, 0.95, 1.05, 0.95
 10033, 'BUS 10033   ',       400, 1,    0,    0, 1,     1.04141,    -8.05055, 1.05, 0.95, 1.05, 0.95
 10034, 'BUS 10034   ',       400, 1,    0,    0, 1,      1.0426,   -14.14929, 1.05, 0.95, 1.05, 0.95
 10035, 'BUS 10035   ',       220, 1,    0,    0, 1,     1.07253,   -12.37237, 1.11, 0.95, 1.11, 0.95
 10036, 'BUS 10036   ',       220, 1,    0,    0, 1,     1.07259,   -12.38001, 1.11, 0.95, 1.11, 0.95
 10037, 'BUS 10037   ',       400, 1,    0,    0, 1,     1.04141,    -8.14861, 1.05, 0.95, 1.05, 0.95
 10038, 'BUS 10038   ',       400, 1,    0,    0, 1,     1.04145,    -8.15657, 1.05, 0.95, 1.05, 0.95
 10039, 'BUS 10039   ',       400, 1,    0,    0, 1,     1.04189,    -8.20445, 1.05, 0.95, 1.05, 0.95
 10040, 'BUS 10040   ',       400, 1,    0,    0, 1,     1.04506,   -12.91957, 1.05, 0.95, 1.05, 0.95
 10041, 'BUS 10041   ',       400, 1,    0,    0, 1,     1.04919,   -11.66977, 1.05, 0.95, 1.05, 0.95
 10042, 'BUS 10042   ',       400, 1,    0,    0, 1,     1.04486,   -18.81658, 1.05, 0.95, 1.05, 0.95
 10043, 'BUS 10043   ',       220, 1,    0,    0, 1,     1.06595,    -14.1772, 1.11, 0.95, 1.11, 0.95
 10044, 'BUS 10044   ',       220, 1,    0,    0, 1,     1.07305,    -13.3306, 1.11, 0.95, 1.11, 0.95
 10045, 'BUS 10045   ',       220, 1,    0,    0, 1,     1.06741,   -18.93627, 1.11, 0.95, 1.11, 0.95
 10046, 'BUS 10046   ',       220, 1,    0,    0, 1,     1.07479,   -17.01935, 1.11, 0.95, 1.11, 0.95
 10047, 'BUS 10047   ',       400, 1,    0,    0, 1,     1.04347,   -19.72898, 1.05, 0.95, 1.05, 0.95
 10048, 'BUS 10048   ',       400, 1,    0,    0, 1,     1.04593,   -11.20792, 1.05, 0.95, 1.05, 0.95
 10049, 'BUS 10049   ',       400, 1,    0,    0, 1,     1.04881,   -11.71874, 1.05, 0.95, 1.05, 0.95
 10050, 'BUS 10050   ',       400, 1,    0,    0, 1,     1.04919,   -11.66977, 1.05, 0.95, 1.05, 0.95
 10051, 'BUS 10051   ',       220, 1,    0,    0, 1,     1.06435,   -18.64806, 1.11, 0.95, 1.11, 0.95
 10052, 'BUS 10052   ',       400, 1,    0,    0, 1,     1.04276,   -16.39521, 1.05, 0.95, 1.05, 0.95
 10053, 'BUS 10053   ',       220, 1,    0,    0, 1,     1.08851,   -11.03458, 1.11, 0.95, 1.11, 0.95
 10054, 'BUS 10054   ',       220, 1,    0,    0, 1,     1.08851,   -11.03458, 1.11, 0.95, 1.11, 0.95
 10055, 'BUS 10055   ',       220, 1,    0,    0, 1,     1.08025,   -14.93844, 1.11, 0.95, 1.11, 0.95
 10056, 'BUS 10056   ',       400, 1,    0,    0, 1,     1.04177,   -10.15342, 1.05, 0.95, 1.05, 0.95
 10057, 'BUS 10057   ',       400, 1,    0,    0, 1,      1.0397,    -9.14536, 1.05, 0.95, 1.05, 0.95
 10058, 'BUS 10058   ',       220, 1,    0,    0, 1,     1.05983,   -16.70686, 1.11, 0.95, 1.11, 0.95
 10059, 'BUS 10059   ',       400, 1,    0,    0, 1,        1.05,    -15.8165, 1.05, 0.95, 1.05, 0.95
 10060, 'BUS 10060   ',       400, 1,    0,    0, 1,     1.04143,    -8.15259, 1.05, 0.95, 1.05, 0.95
 10061, 'BUS 10061   ',       400, 1,    0,    0, 1,     1.04177,   -10.15342, 1.05, 0.95, 1.05, 0.95
 10062, 'BUS 10062   ',       400, 1,    0,    0, 1,     1.04302,   -15.75403, 1.05, 0.95, 1.05, 0.95
 10063, 'BUS 10063   ',       400, 1,    0,    0, 1,     1.04579,   -12.22916, 1.05, 0.95, 1.05, 0.95
 10064, 'BUS 10064   ',       220, 1,    0,    0, 1,     1.06571,   -16.28209, 1.11, 0.95, 1.11, 0.95
 10065, 'BUS 10065   ',       400, 1,    0,    0, 1,     1.04673,   -13.53303, 1.05, 0.95, 1.05, 0.95
 10066, 'BUS 10066   ',       400, 1,    0,    0, 1,     1.04876,   -12.21379, 1.05, 0.95, 1.05, 0.95
 10067, 'BUS 10067   ',       220, 1,    0,    0, 1,     1.06752,   -15.36971, 1.11, 0.95, 1.11, 0.95
 10068, 'BUS 10068   ',       400, 1,    0,    0, 1,     1.04901,   -13.12103, 1.05, 0.95, 1.05, 0.95
 10069, 'BUS 10069   ',       220, 1,    0,    0, 1,     1.06642,   -19.22427, 1.11, 0.95, 1.11, 0.95
 10070, 'BUS 10070   ',       400, 1,    0,    0, 1,     1.04467,   -18.59429, 1.05, 0.95, 1.05, 0.95
 10071, 'BUS 10071   ',       220, 2,    0,    0, 1,     1.07617,   -15.28959, 1.11, 0.95, 1.11, 0.95
 10072, 'BUS 10072   ',       220, 1,    0,    0, 1,     1.08597,   -11.76891, 1.11, 0.95, 1.11, 0.95
 10073, 'BUS 10073   ',       220, 1,    1,    0, 1,      1.0747,   -13.36695, 1.11, 0.95, 1.11, 0.95
 10074, 'BUS 10074   ',       220, 1,    0,    0, 1,     1.07385,   -13.34281, 1.11, 0.95, 1.11, 0.95
 10075, 'BUS 10075   ',       220, 1,    0,    0, 1,     1.07257,    -14.1716, 1.11, 0.95, 1.11, 0.95
 10076, 'BUS 10076   ',       400, 1,    0,    0, 1,     1.04556,   -11.85601, 1.05, 0.95, 1.05, 0.95
 10077, 'BUS 10077   ',       400, 1,    0,    0, 1,     1.04556,   -11.85601, 1.05, 0.95, 1.05, 0.95
 10078, 'BUS 10078   ',       400, 1,    0,    0, 1,     1.03456,    -8.21584, 1.05, 0.95, 1.05, 0.95
 10079, 'BUS 10079   ',       400, 2,    0,    0, 1,     1.01319,    -0.05172, 1.05, 0.95, 1.05, 0.95
 10080, 'BUS 10080   ',       400, 2,    0,    0, 1,     1.02855,    -4.88451, 1.05, 0.95, 1.05, 0.95
 10081, 'BUS 10081   ',       400, 1,    0,    0, 1,     1.03447,    -0.91888, 1.05, 0.95, 1.05, 0.95
 10082, 'BUS 10082   ',       400, 1,    0,    0, 1,     1.00371,    -4.43737, 1.05, 0.95, 1.05, 0.95
 10083, 'BUS 10083   ',       400, 1,    0,    0, 1,     1.04136,    -5.54383, 1.05, 0.95, 1.05, 0.95
 10084, 'BUS 10084   ',       400, 1,    0,    0, 1,     1.04213,    -5.41022, 1.05, 0.95, 1.05, 0.95
 10085, 'BUS 10085   ',       400, 1,    0,    0, 1,     1.04114,    -5.52506, 1.05, 0.95, 1.05, 0.95
 10086, 'BUS 10086   ',       400, 1,    0,    0, 1,     1.04113,    -5.52774, 1.05, 0.95, 1.05, 0.95
 10087, 'BUS 10087   ',       400, 1,    0,    0, 1,      1.0431,    -5.31775, 1.05, 0.95, 1.05, 0.95
 10088, 'BUS 10088   ',       220, 1,    0,    0, 1,     1.08895,    -5.62324, 1.11, 0.95, 1.11, 0.95
 10089, 'BUS 10089   ',       220, 1,    0,    0, 1,     1.08671,    -5.74853, 1.11, 0.95, 1.11, 0.95
 10090, 'BUS 10090   ',       400, 2,    0,    0, 1,     1.04139,    -5.51893, 1.05, 0.95, 1.05, 0.95
 10091, 'BUS 10091   ',       400, 1,    0,    0, 1,     1.04083,    -5.53521, 1.05, 0.95, 1.05, 0.95
 10092, 'BUS 10092   ',       220, 1,    0,    0, 1,      1.0851,    -5.81601, 1.11, 0.95, 1.11, 0.95
 10093, 'BUS 10093   ',       220, 1,    0,    0, 1,     1.08774,    -5.67067, 1.11, 0.95, 1.11, 0.95
 10094, 'BUS 10094   ',       400, 2,    0,    0, 1,     1.03526,    -4.64081, 1.05, 0.95, 1.05, 0.95
 10095, 'BUS 10095   ',       400, 2,    0,    0, 1,     1.02969,    -6.03574, 1.05, 0.95, 1.05, 0.95
 10096, 'BUS 10096   ',       400, 1,    0,    0, 1,     1.02127,    -6.23895, 1.05, 0.95, 1.05, 0.95
 10097, 'BUS 10097   ',       400, 1,    0,    0, 1,     1.02468,    -6.14923, 1.05, 0.95, 1.05, 0.95
 10098, 'BUS 10098   ',       400, 1,    0,    0, 1,     1.02591,    -5.42562, 1.05, 0.95, 1.05, 0.95
 10099, 'BUS 10099   ',       400, 1,    0,    0, 1,     1.00482,    -2.42812, 1.05, 0.95, 1.05, 0.95
 10100, 'BUS 10100   ',       400, 2,    0,    0, 1,     1.04073,    -0.86289, 1.05, 0.95, 1.05, 0.95
 10101, 'BUS 10101   ',       220, 1,    0,    0, 1,     1.03993,   -13.17887, 1.11, 0.95, 1.11, 0.95
 10102, 'BUS 10102   ',       220, 1,    0,    0, 1,      1.0587,    -7.39157, 1.11, 0.95, 1.11, 0.95
 10103, 'BUS 10103   ',       400, 1,    0,    0, 1,     1.03974,    -3.47171, 1.05, 0.95, 1.05, 0.95
 10104, 'BUS 10104   ',       400, 2,    0,    0, 1,     1.04409,    -2.35603, 1.05, 0.95, 1.05, 0.95
 10105, 'BUS 10105   ',       220, 1,    0,    0, 1,     1.06465,    -7.80747, 1.11, 0.95, 1.11, 0.95
 10106, 'BUS 10106   ',       400, 1,    0,    0, 1,     1.03444,    -4.47152, 1.05, 0.95, 1.05, 0.95
 10107, 'BUS 10107   ',       400, 1,    0,    0, 1,     1.04224,    -3.12182, 1.05, 0.95, 1.05, 0.95
 10108, 'BUS 10108   ',       400, 1,    0,    0, 1,     1.04282,    -2.80538, 1.05, 0.95, 1.05, 0.95
 10109, 'BUS 10109   ',       400, 1,    0,    0, 1,      1.0422,    -3.04523, 1.05, 0.95, 1.05, 0.95
 10110, 'BUS 10110   ',       400, 1,    0,    0, 1,      1.0428,    -2.72415, 1.05, 0.95, 1.05, 0.95
 10111, 'BUS 10111   ',       400, 1,    0,    0, 1,     1.02625,    -1.81906, 1.05, 0.95, 1.05, 0.95
 10112, 'BUS 10112   ',       220, 1,    0,    0, 1,     1.10809,    -5.03261, 1.11, 0.95, 1.11, 0.95
 10113, 'BUS 10113   ',       400, 1,    0,    0, 1,     1.01806,    -2.51227, 1.05, 0.95, 1.05, 0.95
 10114, 'BUS 10114   ',       220, 1,    0,    0, 1,     1.09061,    -6.95533, 1.11, 0.95, 1.11, 0.95
 10115, 'BUS 10115   ',       400, 2,    0,    0, 1,     1.00234,    -2.20727, 1.05, 0.95, 1.05, 0.95
 10116, 'BUS 10116   ',       400, 2,    0,    0, 1,     1.00234,    -2.20727, 1.05, 0.95, 1.05, 0.95
 10117, 'BUS 10117   ',       400, 1,    0,    0, 1,     1.03218,    -5.38558, 1.05, 0.95, 1.05, 0.95
 10118, 'BUS 10118   ',       400, 2,    0,    0, 1,     1.04097,    -0.52486, 1.05, 0.95, 1.05, 0.95
 10119, 'BUS 10119   ',       400, 1,    0,    0, 1,     1.01219,     -3.2983, 1.05, 0.95, 1.05, 0.95
 10120, 'BUS 10120   ',       400, 1,    0,    0, 1,     1.03983,    -3.96258, 1.05, 0.95, 1.05, 0.95
 10121, 'BUS 10121   ',       220, 1,    0,    0, 1,     1.05717,    -6.34415, 1.11, 0.95, 1.11, 0.95
 10122, 'BUS 10122   ',       220, 1,    0,    0, 1,     1.05022,    -9.78444, 1.11, 0.95, 1.11, 0.95
 10123, 'BUS 10123   ',       400, 1,    0,    0, 1,     1.04891,    -3.71076, 1.05, 0.95, 1.05, 0.95
 10124, 'BUS 10124   ',       400, 1,    0,    0, 1,        1.05,     -0.9584, 1.05, 0.95, 1.05, 0.95
 10125, 'BUS 10125   ',       400, 1,    0,    0, 1,     1.01317,    -4.39221, 1.05, 0.95, 1.05, 0.95
 10126, 'BUS 10126   ',       400, 2,    0,    0, 1,     1.00802,    -3.54138, 1.05, 0.95, 1.05, 0.95
 10127, 'BUS 10127   ',       220, 1,    0,    0, 1,     1.09612,    -7.22408, 1.11, 0.95, 1.11, 0.95
 10128, 'BUS 10128   ',       220, 1,    0,    0, 1,     1.09612,    -7.22408, 1.11, 0.95, 1.11, 0.95
 10129, 'BUS 10129   ',       400, 2,    0,    0, 1,     1.04538,     0.02453, 1.05, 0.95, 1.05, 0.95
 10130, 'BUS 10130   ',       400, 1,    0,    0, 1,     1.04546,    -0.00196, 1.05, 0.95, 1.05, 0.95
 10131, 'BUS 10131   ',       400, 1,    0,    0, 1,     1.00966,    -4.04069, 1.05, 0.95, 1.05, 0.95
 10132, 'BUS 10132   ',       400, 2,    0,    0, 1,     1.02908,    -4.54928, 1.05, 0.95, 1.05, 0.95
 10133, 'BUS 10133   ',       400, 1,    0,    0, 1,        1.05,    -4.33366, 1.05, 0.95, 1.05, 0.95
 10134, 'BUS 10134   ',       400, 1,    0,    0, 1,     1.04707,    -4.96621, 1.05, 0.95, 1.05, 0.95
 10135, 'BUS 10135   ',       220, 1,    0,    0, 1,     1.05137,    -5.13694, 1.11, 0.95, 1.11, 0.95
 10136, 'BUS 10136   ',       220, 1,    0,    0, 1,     1.07164,    -7.48745, 1.11, 0.95, 1.11, 0.95
 10137, 'BUS 10137   ',       220, 1,    0,    0, 1,     1.03873,   -15.98919, 1.11, 0.95, 1.11, 0.95
 10138, 'BUS 10138   ',       400, 1,    0,    0, 1,     1.03401,    -5.16183, 1.05, 0.95, 1.05, 0.95
 10139, 'BUS 10139   ',       400, 2,    0,    0, 1,     1.03742,    -1.81786, 1.05, 0.95, 1.05, 0.95
 10140, 'BUS 10140   ',       400, 2,    0,    0, 1,     1.03856,    -1.33469, 1.05, 0.95, 1.05, 0.95
 10141, 'BUS 10141   ',       400, 2,    0,    0, 1,     1.01264,    -1.61676, 1.05, 0.95, 1.05, 0.95
 10142, 'BUS 10142   ',       400, 1,    0,    0, 1,     1.03744,    -4.88394, 1.05, 0.95, 1.05, 0.95
 10143, 'BUS 10143   ',       400, 1,    0,    0, 1,     1.03597,     -3.0404, 1.05, 0.95, 1.05, 0.95
 10144, 'BUS 10144   ',       400, 1,    0,    0, 1,     1.03599,    -3.03915, 1.05, 0.95, 1.05, 0.95
 10145, 'BUS 10145   ',       400, 1,    0,    0, 1,     1.01027,    -3.74196, 1.05, 0.95, 1.05, 0.95
 10146, 'BUS 10146   ',       220, 2,    0,    0, 1,     1.04296,     -3.5178, 1.11, 0.95, 1.11, 0.95
 10147, 'BUS 10147   ',       400, 1,    0,    0, 1,     1.03128,    -5.37046, 1.05, 0.95, 1.05, 0.95
 10148, 'BUS 10148   ',       220, 1,    0,    0, 1,     1.07357,    -7.15426, 1.11, 0.95, 1.11, 0.95
 10149, 'BUS 10149   ',       220, 1,    0,    0, 1,     1.07355,    -7.15711, 1.11, 0.95, 1.11, 0.95
 10150, 'BUS 10150   ',       400, 2,    0,    0, 1,     1.04015,    -3.34555, 1.05, 0.95, 1.05, 0.95
 10151, 'BUS 10151   ',       400, 1,    0,    0, 1,     1.04146,     -3.0972, 1.05, 0.95, 1.05, 0.95
 10152, 'BUS 10152   ',       400, 1,    0,    0, 1,     1.04668,    -1.42588, 1.05, 0.95, 1.05, 0.95
 10153, 'BUS 10153   ',       400, 1,    0,    0, 1,     1.03101,    -2.84339, 1.05, 0.95, 1.05, 0.95
 10154, 'BUS 10154   ',       220, 1,    0,    0, 1,     1.03599,    -4.25547, 1.11, 0.95, 1.11, 0.95
 10155, 'BUS 10155   ',       220, 1,    0,    0, 1,     1.08192,    -7.36524, 1.11, 0.95, 1.11, 0.95
 10156, 'BUS 10156   ',       400, 1,    0,    0, 1,     1.03079,    -5.15792, 1.05, 0.95, 1.05, 0.95
 10157, 'BUS 10157   ',       220, 1,    0,    0, 1,     1.08715,     -5.5406, 1.11, 0.95, 1.11, 0.95
 10158, 'BUS 10158   ',       400, 1,    0,    0, 1,     1.01375,    -2.96684, 1.05, 0.95, 1.05, 0.95
 10159, 'BUS 10159   ',       220, 1,    0,    0, 1,        1.11,    -4.89462, 1.11, 0.95, 1.11, 0.95
 10160, 'BUS 10160   ',       220, 1,    0,    0, 1,      1.0642,   -17.66826, 1.11, 0.95, 1.11, 0.95
 10161, 'BUS 10161   ',       400, 1,    0,    0, 1,     1.02091,    -4.68112, 1.05, 0.95, 1.05, 0.95
 10162, 'BUS 10162   ',       220, 1,    0,    0, 1,     1.05927,    -8.90546, 1.11, 0.95, 1.11, 0.95
 10163, 'BUS 10163   ',       220, 1,    0,    0, 1,     1.09451,    -7.44737, 1.11, 0.95, 1.11, 0.95
 10164, 'BUS 10164   ',       400, 1,    0,    0, 1,     1.02895,    -4.92842, 1.05, 0.95, 1.05, 0.95
 10165, 'BUS 10165   ',       400, 1,    0,    0, 1,     1.03338,    -5.57007, 1.05, 0.95, 1.05, 0.95
 10166, 'BUS 10166   ',       220, 1,    0,    0, 1,     1.06606,    -6.42146, 1.11, 0.95, 1.11, 0.95
 10167, 'BUS 10167   ',       400, 1,    0,    0, 1,     1.02906,    -5.04152, 1.05, 0.95, 1.05, 0.95
 10168, 'BUS 10168   ',       400, 1,    0,    0, 1,     1.02906,    -5.04152, 1.05, 0.95, 1.05, 0.95
 10169, 'BUS 10169   ',       400, 1,    0,    0, 1,     1.02941,    -4.99501, 1.05, 0.95, 1.05, 0.95
 10170, 'BUS 10170   ',       400, 1,    0,    0, 1,     1.02941,    -4.99501, 1.05, 0.95, 1.05, 0.95
 10171, 'BUS 10171   ',       400, 2,    0,    0, 1,     1.02955,    -4.63616, 1.05, 0.95, 1.05, 0.95
 10172, 'BUS 10172   ',       400, 1,    0,    0, 1,     1.02972,    -6.04019, 1.05, 0.95, 1.05, 0.95
 10173, 'BUS 10173   ',       400, 1,    0,    0, 1,     1.02972,    -6.04019, 1.05, 0.95, 1.05, 0.95
 10174, 'BUS 10174   ',       400, 1,    0,    0, 1,     1.02061,    -6.26044, 1.05, 0.95, 1.05, 0.95
 10176, 'BUS 10176   ',       400, 2,    0,    0, 1,     1.02979,    -4.79163, 1.05, 0.95, 1.05, 0.95
 10177, 'BUS 10177   ',       400, 2,    0,    0, 1,     1.02979,    -4.79163, 1.05, 0.95, 1.05, 0.95
 10178, 'BUS 10178   ',       400, 1,    0,    0, 1,     1.02727,    -10.4183, 1.05, 0.95, 1.05, 0.95
 10179, 'BUS 10179   ',       400, 1,    0,    0, 1,     1.03892,   -13.22007, 1.05, 0.95, 1.05, 0.95
 10180, 'BUS 10180   ',       220, 1,    0,    0, 1,     1.08759,   -16.75353, 1.11, 0.95, 1.11, 0.95
 10181, 'BUS 10181   ',       220, 1,    0,    0, 1,     1.08759,   -16.75353, 1.11, 0.95, 1.11, 0.95
 10182, 'BUS 10182   ',       400, 1,    0,    0, 1,        1.05,   -12.71113, 1.05, 0.95, 1.05, 0.95
 10183, 'BUS 10183   ',       400, 1,    0,    0, 1,     1.04861,   -10.45398, 1.05, 0.95, 1.05, 0.95
 10184, 'BUS 10184   ',       220, 1,    0,    0, 1,     1.05073,   -14.33097, 1.11, 0.95, 1.11, 0.95
 10185, 'BUS 10185   ',       400, 1,    0,    0, 1,     1.04939,   -12.67172, 1.05, 0.95, 1.05, 0.95
 10186, 'BUS 10186   ',       220, 2,    0,    0, 1,     1.08932,    -7.60913, 1.11, 0.95, 1.11, 0.95
 10187, 'BUS 10187   ',       220, 2,    0,    0, 1,      1.0894,    -7.57617, 1.11, 0.95, 1.11, 0.95
 10188, 'BUS 10188   ',       400, 2,    0,    0, 1,     1.04594,    -9.12003, 1.05, 0.95, 1.05, 0.95
 10189, 'BUS 10189   ',       400, 2,    0,    0, 1,     1.04556,   -10.36714, 1.05, 0.95, 1.05, 0.95
 10190, 'BUS 10190   ',       400, 2,    0,    0, 1,     1.04288,    -9.96023, 1.05, 0.95, 1.05, 0.95
 10191, 'BUS 10191   ',       400, 2,    0,    0, 1,     1.04288,    -9.95495, 1.05, 0.95, 1.05, 0.95
 10192, 'BUS 10192   ',       220, 2,    0,    0, 1,     1.04073,   -11.04322, 1.11, 0.95, 1.11, 0.95
 10193, 'BUS 10193   ',       220, 1,    0,    0, 1,     1.04073,   -11.04554, 1.11, 0.95, 1.11, 0.95
 10194, 'BUS 10194   ',       400, 2,    0,    0, 1,     1.03584,    -9.39911, 1.05, 0.95, 1.05, 0.95
 10195, 'BUS 10195   ',       400, 1,    0,    0, 1,     1.03662,    -9.43812, 1.05, 0.95, 1.05, 0.95
 10196, 'BUS 10196   ',       400, 2,    0,    0, 1,     1.04091,   -12.69816, 1.05, 0.95, 1.05, 0.95
 10197, 'BUS 10197   ',       400, 1,    0,    0, 1,     1.04399,   -12.22816, 1.05, 0.95, 1.05, 0.95
 10198, 'BUS 10198   ',       400, 1,    0,    0, 1,     1.04664,   -10.86919, 1.05, 0.95, 1.05, 0.95
 10199, 'BUS 10199   ',       220, 1,    0,    0, 1,     1.08152,   -10.10172, 1.11, 0.95, 1.11, 0.95
 10200, 'BUS 10200   ',       220, 1,    0,    0, 1,     1.08153,   -10.08501, 1.11, 0.95, 1.11, 0.95
...
0 / END OF BUS DATA, BEGIN LOAD DATA
 10071,  1, 1,    0,    0,        16,         8, 0, 0, 0, 0, 1, 1, 0
 10078,  1, 1,    0,    0,     305.5,       -14, 0, 0, 0, 0, 1, 1, 0
 10079,  1, 1,    0,    0,   -1529.6,    4542.9, 0, 0, 0, 0, 1, 1, 0
 10080,  1, 1,    0,    0,    -159.1,      -181, 0, 0, 0, 0, 1, 1, 0
 10081,  1, 1,    0,    0,   -1078.3,    -374.1, 0, 0, 0, 0, 1, 1, 0
 10082,  1, 1,    0,    0,     943.2,     310.2, 0, 0, 0, 0, 1, 1, 0
 10083,  1, 1,    0,    0,        97,        26, 0, 0, 0, 0, 1, 1, 0
 10084,  1, 1,    0,    0,       0.6,       160, 0, 0, 0, 0, 1, 1, 0
 10085,  1, 1,    0,    0,     161.6,     183.6, 0, 0, 0, 0, 1, 1, 0
 10086,  1, 1,    0,    0,     288.6,     221.6, 0, 0, 0, 0, 1, 1, 0
 10090,  1, 1,    0,    0,     274.4,     279.6, 0, 0, 0, 0, 1, 1, 0
 10091,  1, 1,    0,    0,      94.2,     111.8, 0, 0, 0, 0, 1, 1, 0
 10095,  1, 1,    0,    0,       4.4,   -2590.1, 0, 0, 0, 0, 1, 1, 0
 10096,  1, 1,    0,    0,       488,      79.1, 0, 0, 0, 0, 1, 1, 0
 10097,  1, 1,    0,    0,       601,     147.9, 0, 0, 0, 0, 1, 1, 0
 10098,  1, 1,    0,    0,       527,     265.1, 0, 0, 0, 0, 1, 1, 0
 10102,  1, 1,    0,    0,       120,        25, 0, 0, 0, 0, 1, 1, 0
 10104,  1, 1,    0,    0,     200.2,      48.7, 0, 0, 0, 0, 1, 1, 0
 10121,  1, 1,    0,    0,        80,        20, 0, 0, 0, 0, 1, 1, 0
 10129,  1, 1,    0,    0,       0.2,       100, 0, 0, 0, 0, 1, 1, 0
 10154,  1, 1,    0,    0,        80,        20, 0, 0, 0, 0, 1, 1, 0
 10171,  1, 1,    0,    0,    -104.8,      -159, 0, 0, 0, 0, 1, 1, 0
 10172,  1, 1,    0,    0,     247.4,     -57.5, 0, 0, 0, 0, 1, 1, 0
 10173,  1, 1,    0,    0,     247.4,     -57.5, 0, 0, 0, 0, 1, 1, 0
 10174,  1, 1,    0,    0,     371.5,     403.5, 0, 0, 0, 0, 1, 1, 0
 10176,  1, 1,    0,    0,    -249.9,     162.6, 0, 0, 0, 0, 1, 1, 0
 10177,  1, 1,    0,    0,    -249.9,     162.6, 0, 0, 0, 0, 1, 1, 0
 10178,  1, 1,    0,    0,      52.5,     207.2, 0, 0, 0, 0, 1, 1, 0
 10179,  1, 1,    0,    0,     379.5,      54.6, 0, 0, 0, 0, 1, 1, 0
 10180,  1, 1,    0,    0,      73.6,     -95.6, 0, 0, 0, 0, 1, 1, 0
 10181,  1, 1,    0,    0,      73.6,     -95.6, 0, 0, 0, 0, 1, 1, 0
 10182,  1, 1,    0,    0,     107.2,     -44.4, 0, 0, 0, 0, 1, 1, 0
 10183,  1, 1,    0,    0,        86,         8, 0, 0, 0, 0, 1, 1, 0
 10184,  1, 1,    0,    0,        70,        49, 0, 0, 0, 0, 1, 1, 0
 10189,  1, 1,    0,    0,      10.2,         0, 0, 0, 0, 0, 1, 1, 0
 10197,  1, 1,    0,    0,       295,      51.9, 0, 0, 0, 0, 1, 1, 0
 10199,  1, 1,    0,    0,       308,        40, 0, 0, 0, 0, 1, 1, 0
 10202,  1, 1,    0,    0,       103,        28, 0, 0, 0, 0, 1, 1, 0
 10204,  1, 1,    0,    0,       170,        33, 0, 0, 0, 0, 1, 1, 0
 10205,  1, 1,    0,    0,       154,         6, 0, 0, 0, 0, 1, 1, 0
 10206,  1, 1,    0,    0,       150,        15, 0, 0, 0, 0, 1, 1, 0
 10207,  1, 1,    0,    0,       113,        15, 0, 0, 0, 0, 1, 1, 0
 10208,  1, 1,    0,    0,        65,        11, 0, 0, 0, 0, 1, 1, 0
 10209,  1, 1,    0,    0,        60,        10, 0, 0, 0, 0, 1, 1, 0
 10210,  1, 1,    0,    0,       204,      16.9, 0, 0, 0, 0, 1, 1, 0
 10211,  1, 1,    0,    0,       142,      10.9, 0, 0, 0, 0, 1, 1, 0
 10212,  1, 1,    0,    0,        83,        19, 0, 0, 0, 0, 1, 1, 0
 10213,  1, 1,    0,    0,       189,        35, 0, 0, 0, 0, 1, 1, 0
 10214,  1, 1,    0,    0,        17,         6, 0, 0, 0, 0, 1, 1, 0
 10216,  1, 1,    0,    0,         2,        -6, 0, 0, 0, 0, 1, 1, 0
 10217,  1, 1,    0,    0,        88,        -4, 0, 0, 0, 0, 1, 1, 0
 10222,  1, 1,    0,    0,        50,        20, 0, 0, 0, 0, 1, 1, 0
 10223,  1, 1,    0,    0,    -338.1,     155.6, 0, 0, 0, 0, 1, 1, 0
 10225,  1, 1,    0,    0,     195.7,     126.6, 0, 0, 0, 0, 1, 1, 0
 10226,  1, 1,    0,    0,     141.9,      93.1, 0, 0, 0, 0, 1, 1, 0
 10227,  1, 1,    0,    0,     234.5,      57.5, 0, 0, 0, 0, 1, 1, 0
 10228,  1, 1,    0,    0,     388.2,      98.2, 0, 0, 0, 0, 1, 1, 0
 10229,  1, 1,    0,    0,      84.7,      29.1, 0, 0, 0, 0, 1, 1, 0
 10231,  1, 1,    0,    0,     194.4,      43.4, 0, 0, 0, 0, 1, 1, 0
 10232,  1, 1,    0,    0,     195.7,      43.3, 0, 0, 0, 0, 1, 1, 0
 10233,  1, 1,    0,    0,     513.7,      92.5, 0, 0, 0, 0, 1, 1, 0
 10234,  1, 1,    0,    0,     455.4,     108.8, 0, 0, 0, 0, 1, 1, 0
 10235,  1, 1,    0,    0,      61.8,      19.6, 0, 0, 0, 0, 1, 1, 0
 10236,  1, 1,    0,    0,     260.8,      80.8, 0, 0, 0, 0, 1, 1, 0
 10237,  1, 1,    0,    0,     199.4,      65.6, 0, 0, 0, 0, 1, 1, 0
 10238,  1, 1,    0,    0,       395,      96.4, 0, 0, 0, 0, 1, 1, 0
 10239,  1, 1,    0,    0,     344.4,        71, 0, 0, 0, 0, 1, 1, 0
 10245,  1, 1,    0,    0,     185.4,      59.7, 0, 0, 0, 0, 1, 1, 0
 10246,  1, 1,    0,    0,         4,         2, 0, 0, 0, 0, 1, 1, 0
 10247,  1, 1,    0,    0,        14,        10, 0, 0, 0, 0, 1, 1, 0
 10248,  1, 1,    0,    0,        14,        10, 0, 0, 0, 0, 1, 1, 0
 10249,  1, 1,    0,    0,         5,         3, 0, 0, 0, 0, 1, 1, 0
 10250,  1, 1,    0,    0,        28,        17, 0, 0, 0, 0, 1, 1, 0
 10251,  1, 1,    0,    0,        28,        17, 0, 0, 0, 0, 1, 1, 0
 10252,  1, 1,    0,    0,        28,        17, 0, 0, 0, 0, 1, 1, 0
 10253,  1, 1,    0,    0,      26.7,       5.9, 0, 0, 0, 0, 1, 1, 0
 10254,  1, 1,    0,    0,        23,        10, 0, 0, 0, 0, 1, 1, 0
 10255,  1, 1,    0,    0,         4,         2, 0, 0, 0, 0, 1, 1, 0
 10256,  1, 1,    0,    0,        30,        10, 0, 0, 0, 0, 1, 1, 0
 10257,  1, 1,    0,    0,        15,         5, 0, 0, 0, 0, 1, 1, 0
 10258,  1, 1,    0,    0,        20,         8, 0, 0, 0, 0, 1, 1, 0
 10259,  1, 1,    0,    0,        30,        14, 0, 0, 0, 0, 1, 1, 0
 10260,  1, 1,    0,    0,        45,        21, 0, 0, 0, 0, 1, 1, 0
 10261,  1, 1,    0,    0,        80,        40, 0, 0, 0, 0, 1, 1, 0
 10262,  1, 1,    0,    0,        80,        40, 0, 0, 0, 0, 1, 1, 0
 10263,  1, 1,    0,    0,        10,         4, 0, 0, 0, 0, 1, 1, 0
 10264,  1, 1,    0,    0,        30,        10, 0, 0, 0, 0, 1, 1, 0
 10265,  1, 1,    0,    0,        30,        10, 0, 0, 0, 0, 1, 1, 0
 10266,  1, 1,    0,    0,     298.7,      37.9, 0, 0, 0, 0, 1, 1, 0
 10267,  1, 1,    0,    0,     198.4,      53.4, 0, 0, 0, 0, 1, 1, 0
 10268,  1, 1,    0,    0,     114.8,      20.4, 0, 0, 0, 0, 1, 1, 0
 10269,  1, 1,    0,    0,     275.2,     110.6, 0, 0, 0, 0, 1, 1, 0
 10270,  1, 1,    0,    0,      61.8,      23.7, 0, 0, 0, 0, 1, 1, 0
 10271,  1, 1,    0,    0,     385.3,        67, 0, 0, 0, 0, 1, 1, 0
 10272,  1, 1,    0,    0,     104.1,      17.5, 0, 0, 0, 0, 1, 1, 0
 10273,  1, 1,    0,    0,       541,      91.4, 0, 0, 0, 0, 1, 1, 0
 10274,  1, 1,    0,    0,     256.3,     100.7, 0, 0, 0, 0, 1, 1, 0
 10276,  1, 1,    0,    0,     164.4,        34, 0, 0, 0, 0, 1, 1, 0
 10277,  1, 1,    0,    0,     616.8,     133.2, 0, 0, 0, 0, 1, 1, 0
 10278,  1, 1,    0,    0,        15,        10, 0, 0, 0, 0, 1, 1, 0
 10279,  1, 1,    0,    0,        15,        10, 0, 0, 0, 0, 1, 1, 0
 10280,  1, 1,    0,    0,     149.8,        37, 0, 0, 0, 0, 1, 1, 0
 10281,  1, 1,    0,    0,       106,      22.4, 0, 0, 0, 0, 1, 1, 0
 10282,  1, 1,    0,    0,     363.9,     100.1, 0, 0, 0, 0, 1, 1, 0
 10284,  1, 1,    0,    0,    1122.7,     280.7, 0, 0, 0, 0, 1, 1, 0
 10285,  1, 1,    0,    0,     155.7,      32.1, 0, 0, 0, 0, 1, 1, 0
 10288,  1, 1,    0,    0,     197.5,      44.6, 0, 0, 0, 0, 1, 1, 0
 10289,  1, 1,    0,    0,     124.6,      23.4, 0, 0, 0, 0, 1, 1, 0
 10290,  1, 1,    0,    0,     148.9,      31.1, 0, 0, 0, 0, 1, 1, 0
 10291,  1, 1,    0,    0,     264.7,      53.5, 0, 0, 0, 0, 1, 1, 0
 10292,  1, 1,    0,    0,     364.8,     158.7, 0, 0, 0, 0, 1, 1, 0
 10293,  1, 1,    0,    0,      54.6,      21.6, 0, 0, 0, 0, 1, 1, 0
 10294,  1, 1,    1,    0,      17.5,       3.9, 0, 0, 0, 0, 1, 1, 0
 10295,  1, 1,    0,    0,     344.4,       104, 0, 0, 0, 0, 1, 1, 0
 10296,  1, 1,    0,    0,     275.3,     104.1, 0, 0, 0, 0, 1, 1, 0
 10297,  1, 1,    0,    0,     163.6,       2.3, 0, 0, 0, 0, 1, 1, 0
 10298,  1, 1,    0,    0,      90.7,        61, 0, 0, 0, 0, 1, 1, 0
 10299,  1, 1,    0,    0,       314,        87, 0, 0, 0, 0, 1, 1, 0
 10300,  1, 1,    0,    0,        34,        13, 0, 0, 0, 0, 1, 1, 0
 10301,  1, 1,    0,    0,       107,       -22, 0, 0, 0, 0, 1, 1, 0
 10302,  1, 1,    0,    0,       161,        58, 0, 0, 0, 0, 1, 1, 0
 10303,  1, 1,    0,    0,     161.5,        37, 0, 0, 0, 0, 1, 1, 0
 10304,  1, 1,    0,    0,     161.5,        37, 0, 0, 0, 0, 1, 1, 0
 10305,  1, 1,    0,    0,       232,     -45.9, 0, 0, 0, 0, 1, 1, 0
 10306,  1, 1,    0,    0,       143,      58.1, 0, 0, 0, 0, 1, 1, 0
 10307,  1, 1,    0,    0,     111.5,      32.5, 0, 0, 0, 0, 1, 1, 0
 10308,  1, 1,    0,    0,     111.5,      32.5, 0, 0, 0, 0, 1, 1, 0
 10309,  1, 1,    0,    0,       124,       8.1, 0, 0, 0, 0, 1, 1, 0
 10310,  1, 1,    0,    0,      28.5,         6, 0, 0, 0, 0, 1, 1, 0
 10311,  1, 1,    0,    0,      28.5,         6, 0, 0, 0, 0, 1, 1, 0
 10312,  1, 1,    0,    0,       135,        74, 0, 0, 0, 0, 1, 1, 0
 10315,  1, 1,    0,    0,       110,        34, 0, 0, 0, 0, 1, 1, 0
 10316,  1, 1,    0,    0,       110,        34, 0, 0, 0, 0, 1, 1, 0
 10317,  1, 1,    0,    0,       100,        32, 0, 0, 0, 0, 1, 1, 0
 10318,  1, 1,    0,    0,        37,        35, 0, 0, 0, 0, 1, 1, 0
 10319,  1, 1,    0,    0,        93,        80, 0, 0, 0, 0, 1, 1, 0
 10320,  1, 1,    0,    0,        30,        18, 0, 0, 0, 0, 1, 1, 0
 10321,  1, 1,    0,    0,       189,        38, 0, 0, 0, 0, 1, 1, 0
 10322,  1, 1,    0,    0,      78.5,        21, 0, 0, 0, 0, 1, 1, 0
 10323,  1, 1,    0,    0,      78.5,        21, 0, 0, 0, 0, 1, 1, 0
 10324,  1, 1,    0,    0,       190,        22, 0, 0, 0, 0, 1, 1, 0
 10325,  1, 1,    0,    0,      42.6,      31.4, 0, 0, 0, 0, 1, 1, 0
 10326,  1, 1,    0,    0,     170.4,     125.6, 0, 0, 0, 0, 1, 1, 0
 10327,  1, 1,    0,    0,       106,        50, 0, 0, 0, 0, 1, 1, 0
 10328,  1, 1,    0,    0,        94,      60.6, 0, 0, 0, 0, 1, 1, 0
 10329,  1, 1,    0,    0,        94,      60.6, 0, 0, 0, 0, 1, 1, 0
 10330,  1, 1,    0,    0,     133.5,      25.5, 0, 0, 0, 0, 1, 1, 0
 10331,  1, 1,    0,    0,     133.5,      25.5, 0, 0, 0, 0, 1, 1, 0
 10332,  1, 1,    0,    0,       121,      31.9, 0, 0, 0, 0, 1, 1, 0
 10333,  1, 1,    0,    0,       125,         3, 0, 0, 0, 0, 1, 1, 0
 10334,  1, 1,    0,    0,       210,         0, 0, 0, 0, 0, 1, 1, 0
 10335,  1, 1,    0,    0,        62,      33.5, 0, 0, 0, 0, 1, 1, 0
 10336,  1, 1,    0,    0,        62,      33.5, 0, 0, 0, 0, 1, 1, 0
 10337,  1, 1,    0,    0,        85,         5, 0, 0, 0, 0, 1, 1, 0
 10338,  1, 1,    0,    0,        85,         5, 0, 0, 0, 0, 1, 1, 0
 10339,  1, 1,    0,    0,       147,        36, 0, 0, 0, 0, 1, 1, 0
 10340,  1, 1,    0,    0,       147,        36, 0, 0, 0, 0, 1, 1, 0
 10341,  1, 1,    0,    0,        44,         0, 0, 0, 0, 0, 1, 1, 0
 10342,  1, 1,    0,    0,        33,       -19, 0, 0, 0, 0, 1, 1, 0
 10343,  1, 1,    0,    0,       107,        22, 0, 0, 0, 0, 1, 1, 0
 10344,  1, 1,    0,    0,       157,        46, 0, 0, 0, 0, 1, 1, 0
 10345,  1, 1,    0,    0,        95,        21, 0, 0, 0, 0, 1, 1, 0
 10346,  1, 1,    0,    0,      67.5,         7, 0, 0, 0, 0, 1, 1, 0
 10347,  1, 1,    0,    0,      67.5,         7, 0, 0, 0, 0, 1, 1, 0
 10348,  1, 1,    0,    0,       102,        17, 0, 0, 0, 0, 1, 1, 0
 10349,  1, 1,    0,    0,       102,        17, 0, 0, 0, 0, 1, 1, 0
 10350,  1, 1,    0,    0,       109,        25, 0, 0, 0, 0, 1, 1, 0
 10351,  1, 1,    0,    0,       181,      45.1, 0, 0, 0, 0, 1, 1, 0
 10352,  1, 1,    0,    0,        45,        25, 0, 0, 0, 0, 1, 1, 0
 10353,  1, 1,    0,    0,        62,      38.5, 0, 0, 0, 0, 1, 1, 0
 10354,  1, 1,    0,    0,        62,      38.5, 0, 0, 0, 0, 1, 1, 0
 10355,  1, 1,    0,    0,       300,        57, 0, 0, 0, 0, 1, 1, 0
 10356,  1, 1,    0,    0,        15,         3, 0, 0, 0, 0, 1, 1, 0
 10357,  1, 1,    0,    0,        79,         6, 0, 0, 0, 0, 1, 1, 0
 10358,  1, 1,    0,    0,       296,        58, 0, 0, 0, 0, 1, 1, 0
 10360,  1, 1,    0,    0,       240,        71, 0, 0, 0, 0, 1, 1, 0
 10361,  1, 1,    0,    0,       265,      46.1, 0, 0, 0, 0, 1, 1, 0
    24,  1, 1,    1,    1,        10,      20.1, 0, 0, 0, 0, 1, 1, 0
    25,  1, 1,    1,    1,        10,      20.1, 0, 0, 0, 0, 1, 1, 0
    37,  1, 1,    1,    1,      48.7,      86.2, 0, 0, 0, 0, 1, 1, 0
    38,  1, 1,    1,    1,      54.5,      89.9, 0, 0, 0, 0, 1, 1, 0
    39,  1, 1,    1,    1,      20.1,      40.2, 0, 0, 0, 0, 1, 1, 0
    40,  1, 1,    1,    1,      60.3,     120.6, 0, 0, 0, 0, 1, 1, 0
    41,  1, 1,    1,    1,      60.3,     120.6, 0, 0, 0, 0, 1, 1, 0
    54,  1, 1,    1,    2,       3.2,         1, 0, 0, 0, 0, 1, 1, 0
    57,  1, 1,    1,    2,      26.1,      60.3, 0, 0, 0, 0, 1, 1, 0
    58,  1, 1,    1,    2,      54.3,     120.6, 0, 0, 0, 0, 1, 1, 0
    59,  1, 1,    1,    2,      13.1,      30.1, 0, 0, 0, 0, 1, 1, 0
    60,  1, 1,    1,    2,      26.1,      50.2, 0, 0, 0, 0, 1, 1, 0
    61,  1, 1,    1,    2,      26.1,      50.2, 0, 0, 0, 0, 1, 1, 0
    70,  1, 1,    1,    2,      13.1,      30.1, 0, 0, 0, 0, 1, 1, 0
    71,  1, 1,    1,    2,      13.1,      30.1, 0, 0, 0, 0, 1, 1, 0
    72,  1, 1,    1,    2,      13.1,      30.1, 0, 0, 0, 0, 1, 1, 0
    73,  1, 1,    1,    2,      26.1,      60.3, 0, 0, 0, 0, 1, 1, 0
    74,  1, 1,    1,    2,     149.7,      60.3, 0, 0, 0, 0, 1, 1, 0
    75,  1, 1,    1,    2,      29.1,        10, 0, 0, 0, 0, 1, 1, 0
    86,  1, 1,    1,    3,       9.4,         0, 0, 0, 0, 0, 1, 1, 0
    87,  1, 1,    1,    3,       8.2,         0, 0, 0, 0, 0, 1, 1, 0
    94,  1, 1,    1,    3,      28.1,      70.3, 0, 0, 0, 0, 1, 1, 0
    95,  1, 1,    1,    3,      42.2,     103.5, 0, 0, 0, 0, 1, 1, 0
...
0 / END OF LOAD DATA, BEGIN FIXED SHUNT DATA
   234, 1, 1,       0,      70
   315, 1, 1,       0,      45
   427, 1, 1,       0,      45
   442, 1, 1,       0,      15
   443, 1, 1,       0,      15
  2748, 1, 1,       0,    48.6
  2772, 1, 1,       0,      60
  2781, 1, 1,       0,      45
  2856, 1, 1,       0,      60
0 / END OF FIXED SHUNT DATA, BEGIN GENERATOR DATA
 10071,  1,     133.9,       0.7,       Inf,      -Inf,  1.07617, 0,     285, 0, 1, 0, 0, 1, 1, 100,     204.6,     133.9, 1, 1, 0, 1, 0, 1, 0, 1, 0, 1
 10079,  1,     359.9,    4404.9,       Inf,      -Inf,  1.01319, 0,    2031, 0, 1, 0, 0, 1, 1, 100,     549.9,     359.9, 1, 1, 0, 1, 0, 1, 0, 1, 0, 1
 10080,  1,       7.6,    -358.3,       Inf,      -Inf,  1.02855, 0,     119, 0, 1, 0, 0, 1, 1, 100,      11.6,       7.6, 1, 1, 0, 1, 0, 1, 0, 1, 0, 1
 10090,  1,     410.4,     188.1,       Inf,      -Inf,  1.04139, 0,     806, 0, 1, 0, 0, 1, 1, 100,       627,     410.4, 1, 1, 0, 1, 0, 1, 0, 1, 0, 1
 10094,  1,     554.4,   10091.5,       Inf,      -Inf,  1.03526, 0,     970, 0, 1, 0, 0, 1, 1, 100,       847,     554.4, 1, 1, 0, 1, 0, 1, 0, 1, 0, 1
 10095,  1,     121.8,   -2580.1,       Inf,      -Inf,  1.02969, 0,    1439, 0, 1, 0, 0, 1, 1, 100,    1241.5,     121.8, 1, 1, 0, 1, 0, 1, 0, 1, 0, 1
 10100,  1,    1267.2,    -118.4,       Inf,      -Inf,  1.04073, 0,    2202, 0, 1, 0, 0, 1, 1, 100,      1936,    1267.2, 1, 1, 0, 1, 0, 1, 0, 1, 0, 1
 10104,  1,       540,      56.7,       Inf,      -Inf,  1.04409, 0,     939, 0, 1, 0, 0, 1, 1, 100,       825,       540, 1, 1, 0, 1, 0, 1, 0, 1, 0, 1
 10115,  1,     280.8,    -228.6,       Inf,      -Inf,  1.00234, 0,     492, 0, 1, 0, 0, 1, 1, 100,       429,     280.8, 1, 1, 0, 1, 0, 1, 0, 1, 0, 1
 10116,  1,     280.8,    -228.6,       Inf,      -Inf,  1.00234, 0,     492, 0, 1, 0, 0, 1, 1, 100,       429,     280.8, 1, 1, 0, 1, 0, 1, 0, 1, 0, 1
 10118,  1,      1080,      63.4,       Inf,      -Inf,  1.04097, 0,    1876, 0, 1, 0, 0, 1, 1, 100,      1650,      1080, 1, 1, 0, 1, 0, 1, 0, 1, 0, 1
 10126,  1,     424.8,    -432.6,       Inf,      -Inf,  1.00802, 0,     786, 0, 1, 0, 0, 1, 1, 100,       649,     424.8, 1, 1, 0, 1, 0, 1, 0, 1, 0, 1
 10129,  1,      1656,    -432.6,       Inf,      -Inf,  1.04538, 0,    2974, 0, 1, 0, 0, 1, 1, 100,      2530,      1656, 1, 1, 0, 1, 0, 1, 0, 1, 0, 1
 10132,  1,     583.2,       -91,       Inf,      -Inf,  1.02908, 0,    1014, 0, 1, 0, 0, 1, 1, 100,       891,     583.2, 1, 1, 0, 1, 0, 1, 0, 1, 0, 1
 10139,  1,       648,    -206.7,       Inf,      -Inf,  1.03742, 0,    1143, 0, 1, 0, 0, 1, 1, 100,       990,       648, 1, 1, 0, 1, 0, 1, 0, 1, 0, 1
 10140,  1,       972,    -194.4,       Inf,      -Inf,  1.03856, 0,    1705, 0, 1, 0, 0, 1, 1, 100,      1485,       972, 1, 1, 0, 1, 0, 1, 0, 1, 0, 1
 10141,  1,      1224,    -437.3,       Inf,      -Inf,  1.01264, 0,    2125, 0, 1, 0, 0, 1, 1, 100,      1870,      1224, 1, 1, 0, 1, 0, 1, 0, 1, 0, 1
 10146,  1,     115.2,    -176.7,       Inf,      -Inf,  1.04296, 0,     224, 0, 1, 0, 0, 1, 1, 100,       176,     115.2, 1, 1, 0, 1, 0, 1, 0, 1, 0, 1
 10150,  1,     201.6,      10.8,       Inf,      -Inf,  1.04015, 0,     427, 0, 1, 0, 0, 1, 1, 100,       308,     201.6, 1, 1, 0, 1, 0, 1, 0, 1, 0, 1
 10171,  1,      84.6,     -9949,       Inf,      -Inf,  1.02955, 0,     715, 0, 1, 0, 0, 1, 1, 100,     129.3,      84.6, 1, 1, 0, 1, 0, 1, 0, 1, 0, 1
 10176,  1,       191,     283.3,       Inf,      -Inf,  1.02979, 0,     346, 0, 1, 0, 0, 1, 1, 100,     291.8,       191, 1, 1, 0, 1, 0, 1, 0, 1, 0, 1
 10177,  1,       191,     283.3,       Inf,      -Inf,  1.02979, 0,     346, 0, 1, 0, 0, 1, 1, 100,     291.8,       191, 1, 1, 0, 1, 0, 1, 0, 1, 0, 1
 10186,  1,     342.7,      27.1,       Inf,      -Inf,  1.08932, 0,     618, 0, 1, 0, 0, 1, 1, 100,     534.6,     342.7, 1, 1, 0, 1, 0, 1, 0, 1, 0, 1
 10187,  1,     342.7,      27.2,       Inf,      -Inf,   1.0894, 0,     618, 0, 1, 0, 0, 1, 1, 100,     534.6,     342.7, 1, 1, 0, 1, 0, 1, 0, 1, 0, 1
 10188,  1,     347.8,     -76.3,       Inf,      -Inf,  1.04594, 0,     618, 0, 1, 0, 0, 1, 1, 100,     531.3,     347.8, 1, 1, 0, 1, 0, 1, 0, 1, 0, 1
 10189,  1,       283,     -60.7,       Inf,      -Inf,  1.04556, 0,     620, 0, 1, 0, 0, 1, 1, 100,     542.3,       283, 1, 1, 0, 1, 0, 1, 0, 1, 0, 1
 10190,  1,     371.5,     -14.2,       Inf,      -Inf,  1.04288, 0,     683, 0, 1, 0, 0, 1, 1, 100,     600.6,     371.5, 1, 1, 0, 1, 0, 1, 0, 1, 0, 1
 10191,  1,     370.8,     -13.7,       Inf,      -Inf,  1.04288, 0,     682, 0, 1, 0, 0, 1, 1, 100,     599.5,     370.8, 1, 1, 0, 1, 0, 1, 0, 1, 0, 1
 10192,  1,     111.6,      19.1,       Inf,      -Inf,  1.04073, 0,     281, 0, 1, 0, 0, 1, 1, 100,     247.5,     111.6, 1, 1, 0, 1, 0, 1, 0, 1, 0, 1
 10194,  1,      64.8,     -85.2,       Inf,      -Inf,  1.03584, 0,     184, 0, 1, 0, 0, 1, 1, 100,       143,      64.8, 1, 1, 0, 1, 0, 1, 0, 1, 0, 1
 10196,  1,       108,     -46.1,       Inf,      -Inf,  1.04091, 0,     215, 0, 1, 0, 0, 1, 1, 100,       165,       108, 1, 1, 0, 1, 0, 1, 0, 1, 0, 1
 10223,  1,     125.5,     190.8,       Inf,      -Inf,  1.04073, 0,     189, 0, 1, 0, 0, 1, 1, 100,     125.5,         0, 1, 1, 0, 1, 0, 1, 0, 1, 0, 1
 10225,  1,      77.8,     131.8,       Inf,      -Inf,  1.06248, 0,     333, 0, 1, 0, 0, 1, 1, 100,     272.8,      77.8, 1, 1, 0, 1, 0, 1, 0, 1, 0, 1
 10226,  1,      34.6,      97.3,       Inf,      -Inf,  1.06441, 0,     198, 0, 1, 0, 0, 1, 1, 100,     140.8,      34.6, 1, 1, 0, 1, 0, 1, 0, 1, 0, 1
 10227,  1,      11.5,      71.5,       Inf,      -Inf,  1.10423, 0,     191, 0, 1, 0, 0, 1, 1, 100,      17.6,      11.5, 1, 1, 0, 1, 0, 1, 0, 1, 0, 1
 10228,  1,      18.7,     146.1,       Inf,      -Inf,  1.06247, 0,     135, 0, 1, 0, 0, 1, 1, 100,      28.6,      18.7, 1, 1, 0, 1, 0, 1, 0, 1, 0, 1
 10229,  1,      39.6,      24.8,       Inf,      -Inf,  1.06902, 0,      85, 0, 1, 0, 0, 1, 1, 100,      60.5,      39.6, 1, 1, 0, 1, 0, 1, 0, 1, 0, 1
 10230,  1,         0,      18.2,       Inf,      -Inf,  1.07323, 0,     132, 0, 1, 0, 0, 1, 1, 100,       0.1,         0, 1, 1, 0, 1, 0, 1, 0, 1, 0, 1
 10232,  1,      11.2,      36.3,       Inf,      -Inf,  1.01987, 0,      64, 0, 1, 0, 0, 1, 1, 100,      17.2,      11.2, 1, 1, 0, 1, 0, 1, 0, 1, 0, 1
 10233,  1,      45.4,      68.4,       Inf,      -Inf,  1.04665, 0,      79, 0, 1, 0, 0, 1, 1, 100,      69.3,      45.4, 1, 1, 0, 1, 0, 1, 0, 1, 0, 1
 10234,  1,       3.6,     205.6,       Inf,      -Inf,  1.09129, 0,     115, 0, 1, 0, 0, 1, 1, 100,       5.5,       3.6, 1, 1, 0, 1, 0, 1, 0, 1, 0, 1
 10235,  1,      28.8,      18.1,       Inf,      -Inf,  1.08091, 0,      83, 0, 1, 0, 0, 1, 1, 100,        44,      28.8, 1, 1, 0, 1, 0, 1, 0, 1, 0, 1
 10236,  1,     119.5,      37.8,       Inf,      -Inf,  1.07896, 0,     219, 0, 1, 0, 0, 1, 1, 100,     182.6,     119.5, 1, 1, 0, 1, 0, 1, 0, 1, 0, 1
 10237,  1,      50.4,       132,       Inf,      -Inf,  1.08023, 0,     121, 0, 1, 0, 0, 1, 1, 100,        77,      50.4, 1, 1, 0, 1, 0, 1, 0, 1, 0, 1
 10238,  1,      61.9,     122.2,       Inf,      -Inf,  1.00809, 0,     179, 0, 1, 0, 0, 1, 1, 100,      94.6,      61.9, 1, 1, 0, 1, 0, 1, 0, 1, 0, 1
 10239,  1,      62.6,      39.5,       Inf,      -Inf,  1.06246, 0,     109, 0, 1, 0, 0, 1, 1, 100,      95.7,      62.6, 1, 1, 0, 1, 0, 1, 0, 1, 0, 1
 10240,  1,         0,      11.5,       Inf,      -Inf,   1.0666, 0,     128, 0, 1, 0, 0, 1, 1, 100,       0.1,         0, 1, 1, 0, 1, 0, 1, 0, 1, 0, 1
 10246,  1,     146.2,     -49.3,       Inf,      -Inf,  1.03917, 0,     262, 0, 1, 0, 0, 1, 1, 100,     223.3,     146.2, 1, 1, 0, 1, 0, 1, 0, 1, 0, 1
 10247,  1,     102.2,      -1.7,       Inf,      -Inf,     1.12, 0,     215, 0, 1, 0, 0, 1, 1, 100,     156.2,     102.2, 1, 1, 0, 1, 0, 1, 0, 1, 0, 1
 10248,  1,     122.4,       6.2,       Inf,      -Inf,     1.12, 0,     241, 0, 1, 0, 0, 1, 1, 100,       187,     122.4, 1, 1, 0, 1, 0, 1, 0, 1, 0, 1
 10249,  1,       128,     -23.9,       Inf,      -Inf,  1.00179, 0,     225, 0, 1, 0, 0, 1, 1, 100,     195.6,       128, 1, 1, 0, 1, 0, 1, 0, 1, 0, 1
 10250,  1,     374.4,      -1.1,       Inf,      -Inf,   1.0404, 0,     650, 0, 1, 0, 0, 1, 1, 100,       572,     374.4, 1, 1, 0, 1, 0, 1, 0, 1, 0, 1
 10251,  1,     374.4,      -2.6,       Inf,      -Inf,  1.03995, 0,     650, 0, 1, 0, 0, 1, 1, 100,       572,     374.4, 1, 1, 0, 1, 0, 1, 0, 1, 0, 1
 10252,  1,     374.4,      -2.5,       Inf,      -Inf,  1.03994, 0,     650, 0, 1, 0, 0, 1, 1, 100,       572,     374.4, 1, 1, 0, 1, 0, 1, 0, 1, 0, 1
 10253,  1,     187.9,      33.5,       Inf,      -Inf,  1.01534, 0,     341, 0, 1, 0, 0, 1, 1, 100,     287.1,     187.9, 1, 1, 0, 1, 0, 1, 0, 1, 0, 1
 10254,  1,     342.7,      30.5,       Inf,      -Inf,  1.04999, 0,     598, 0, 1, 0, 0, 1, 1, 100,     523.6,     342.7, 1, 1, 0, 1, 0, 1, 0, 1, 0, 1
 10255,  1,       121,       5.4,       Inf,      -Inf,  1.03994, 0,     210, 0, 1, 0, 0, 1, 1, 100,     184.8,       121, 1, 1, 0, 1, 0, 1, 0, 1, 0, 1
 10256,  1,     280.8,      31.7,       Inf,      -Inf,  1.11998, 0,     489, 0, 1, 0, 0, 1, 1, 100,       429,     280.8, 1, 1, 0, 1, 0, 1, 0, 1, 0, 1
 10257,  1,     140.4,      16.3,       Inf,      -Inf,  1.11817, 0,     250, 0, 1, 0, 0, 1, 1, 100,     214.5,     140.4, 1, 1, 0, 1, 0, 1, 0, 1, 0, 1
 10258,  1,     129.6,        -3,       Inf,      -Inf,  1.10518, 0,     230, 0, 1, 0, 0, 1, 1, 100,       198,     129.6, 1, 1, 0, 1, 0, 1, 0, 1, 0, 1
 10259,  1,     283.7,         8,       Inf,      -Inf,  0.98182, 0,     519, 0, 1, 0, 0, 1, 1, 100,     433.4,     283.7, 1, 1, 0, 1, 0, 1, 0, 1, 0, 1
 10260,  1,     425.5,       9.2,       Inf,      -Inf,  1.10941, 0,     741, 0, 1, 0, 0, 1, 1, 100,     650.1,     425.5, 1, 1, 0, 1, 0, 1, 0, 1, 0, 1
 10261,  1,     579.6,      15.8,       Inf,      -Inf,  0.99592, 0,    1100, 0, 1, 0, 0, 1, 1, 100,     951.5,     579.6, 1, 1, 0, 1, 0, 1, 0, 1, 0, 1
 10262,  1,     579.6,      15.9,       Inf,      -Inf,  0.99592, 0,    1100, 0, 1, 0, 0, 1, 1, 100,     951.5,     579.6, 1, 1, 0, 1, 0, 1, 0, 1, 0, 1
 10263,  1,      67.7,       7.8,       Inf,      -Inf,  1.09219, 0,     121, 0, 1, 0, 0, 1, 1, 100,     103.4,      67.7, 1, 1, 0, 1, 0, 1, 0, 1, 0, 1
 10264,  1,     280.8,      -4.2,       Inf,      -Inf,  1.00552, 0,     489, 0, 1, 0, 0, 1, 1, 100,       429,     280.8, 1, 1, 0, 1, 0, 1, 0, 1, 0, 1
 10265,  1,     280.8,      -7.2,       Inf,      -Inf,  1.10573, 0,     496, 0, 1, 0, 0, 1, 1, 100,       429,     280.8, 1, 1, 0, 1, 0, 1, 0, 1, 0, 1
 10266,  1,       3.6,      -8.1,       Inf,      -Inf,  1.04403, 0,      72, 0, 1, 0, 0, 1, 1, 100,       5.5,       3.6, 1, 1, 0, 1, 0, 1, 0, 1, 0, 1
 10267,  1,       4.3,      43.3,       Inf,      -Inf,  1.08131, 0,     120, 0, 1, 0, 0, 1, 1, 100,       6.6,       4.3, 1, 1, 0, 1, 0, 1, 0, 1, 0, 1
 10268,  1,      20.9,      15.8,       Inf,      -Inf,  1.06395, 0,      37, 0, 1, 0, 0, 1, 1, 100,      31.9,      20.9, 1, 1, 0, 1, 0, 1, 0, 1, 0, 1
 10269,  1,      68.4,     127.9,       Inf,      -Inf,  1.07428, 0,     338, 0, 1, 0, 0, 1, 1, 100,     291.5,      68.4, 1, 1, 0, 1, 0, 1, 0, 1, 0, 1
 10270,  1,         0,      24.4,       Inf,      -Inf,  1.05973, 0,      40, 0, 1, 0, 0, 1, 1, 100,       0.1,         0, 1, 1, 0, 1, 0, 1, 0, 1, 0, 1
 10271,  1,     156.2,      71.4,       Inf,      -Inf,  1.06494, 0,     286, 0, 1, 0, 0, 1, 1, 100,     238.7,     156.2, 1, 1, 0, 1, 0, 1, 0, 1, 0, 1
 10272,  1,      24.5,      16.2,       Inf,      -Inf,    1.072, 0,     116, 0, 1, 0, 0, 1, 1, 100,      37.4,      24.5, 1, 1, 0, 1, 0, 1, 0, 1, 0, 1
 10273,  1,     165.6,      83.2,       Inf,      -Inf,  1.02431, 0,     321, 0, 1, 0, 0, 1, 1, 100,       253,     165.6, 1, 1, 0, 1, 0, 1, 0, 1, 0, 1
 10274,  1,      61.2,     118.3,       Inf,      -Inf,  1.06504, 0,     317, 0, 1, 0, 0, 1, 1, 100,     225.5,      61.2, 1, 1, 0, 1, 0, 1, 0, 1, 0, 1
 10275,  1,      21.6,       5.4,       Inf,      -Inf,  1.06182, 0,     125, 0, 1, 0, 0, 1, 1, 100,       110,      21.6, 1, 1, 0, 1, 0, 1, 0, 1, 0, 1
 10276,  1,     107.3,      19.9,       Inf,      -Inf,  1.06034, 0,     189, 0, 1, 0, 0, 1, 1, 100,     163.9,     107.3, 1, 1, 0, 1, 0, 1, 0, 1, 0, 1
 10277,  1,      80.6,        60,       Inf,      -Inf,  1.06264, 0,     225, 0, 1, 0, 0, 1, 1, 100,     123.2,      80.6, 1, 1, 0, 1, 0, 1, 0, 1, 0, 1
 10278,  1,     129.6,      18.8,       Inf,      -Inf,  1.11356, 0,     233, 0, 1, 0, 0, 1, 1, 100,       198,     129.6, 1, 1, 0, 1, 0, 1, 0, 1, 0, 1
 10279,  1,     129.6,      18.8,       Inf,      -Inf,  1.11356, 0,     233, 0, 1, 0, 0, 1, 1, 100,       198,     129.6, 1, 1, 0, 1, 0, 1, 0, 1, 0, 1
 10281,  1,       2.9,      25.3,       Inf,      -Inf,  1.07868, 0,      20, 0, 1, 0, 0, 1, 1, 100,       4.4,       2.9, 1, 1, 0, 1, 0, 1, 0, 1, 0, 1
 10282,  1,      58.3,     143.8,       Inf,      -Inf,  1.06767, 0,     357, 0, 1, 0, 0, 1, 1, 100,     287.1,      58.3, 1, 1, 0, 1, 0, 1, 0, 1, 0, 1
 10284,  1,     418.3,       179,       Inf,      -Inf,     1.12, 0,     919, 0, 1, 0, 0, 1, 1, 100,     771.1,     418.3, 1, 1, 0, 1, 0, 1, 0, 1, 0, 1
 10285,  1,         0,     -21.9,       Inf,      -Inf,   1.0574, 0,     132, 0, 1, 0, 0, 1, 1, 100,       0.1,         0, 1, 1, 0, 1, 0, 1, 0, 1, 0, 1
 10288,  1,      20.9,     -26.5,       Inf,      -Inf,  1.03369, 0,      63, 0, 1, 0, 0, 1, 1, 100,      31.9,      20.9, 1, 1, 0, 1, 0, 1, 0, 1, 0, 1
 10289,  1,       0.7,       -25,       Inf,      -Inf,  1.05256, 0,      41, 0, 1, 0, 0, 1, 1, 100,      34.1,       0.7, 1, 1, 0, 1, 0, 1, 0, 1, 0, 1
 10290,  1,      28.1,      27.1,       Inf,      -Inf,  1.06119, 0,      49, 0, 1, 0, 0, 1, 1, 100,      42.9,      28.1, 1, 1, 0, 1, 0, 1, 0, 1, 0, 1
 10291,  1,       5.8,      48.9,       Inf,      -Inf,  1.08362, 0,      71, 0, 1, 0, 0, 1, 1, 100,       8.8,       5.8, 1, 1, 0, 1, 0, 1, 0, 1, 0, 1
 10292,  1,     312.5,     164.1,       Inf,      -Inf,  1.08678, 0,     638, 0, 1, 0, 0, 1, 1, 100,     477.4,     312.5, 1, 1, 0, 1, 0, 1, 0, 1, 0, 1
 10293,  1,      19.4,      20.3,       Inf,      -Inf,  1.07356, 0,      46, 0, 1, 0, 0, 1, 1, 100,      29.7,      19.4, 1, 1, 0, 1, 0, 1, 0, 1, 0, 1
 10294,  1,       7.9,      33.2,       Inf,      -Inf,  1.08819, 0,      74, 0, 1, 0, 0, 1, 1, 100,      12.1,       7.9, 1, 1, 0, 1, 0, 1, 0, 1, 0, 1
 10295,  1,     151.9,     124.2,       Inf,      -Inf,  0.99474, 0,     299, 0, 1, 0, 0, 1, 1, 100,     232.1,     151.9, 1, 1, 0, 1, 0, 1, 0, 1, 0, 1
 10296,  1,     197.3,     132.4,       Inf,      -Inf,  1.08634, 0,     461, 0, 1, 0, 0, 1, 1, 100,     301.4,     197.3, 1, 1, 0, 1, 0, 1, 0, 1, 0, 1
    24,  1,       110,      89.2,       140,       -49,  1.07767, 0,   235.3, 0, 1, 0, 0, 1, 1, 100,       221,       110, 1, 1, 0, 1, 0, 1, 0, 1, 0, 1
    25,  1,       135,       -22,       124,       -22,   1.0776, 0,   235.3, 0, 1, 0, 0, 1, 1, 100,       200,       135, 1, 1, 0, 1, 0, 1, 0, 1, 0, 1
    37,  1,       370,     169.3,       190,       -19,     1.11, 0,     426, 0, 1, 0, 0, 1, 1, 100,       370,       240, 1, 1, 0, 1, 0, 1, 0, 1, 0, 1
    37,  2,       370,       -19,       190,       -19,     1.11, 0,     426, 0, 1, 0, 0, 1, 1, 100,       370,       240, 1, 1, 0, 1, 0, 1, 0, 1, 0, 1
    38,  1,       370,      34.1,       190,       -19,     1.11, 0,     426, 0, 1, 0, 0, 1, 1, 100,       370,       240, 1, 1, 0, 1, 0, 1, 0, 1, 0, 1
    38,  2,       370,       2.3,       190,       -19,     1.11, 0,     426, 0, 1, 0, 0, 1, 1, 100,       370,       240, 1, 1, 0, 1, 0, 1, 0, 1, 0, 1
    39,  1,       370,      94.4,       190,       -19,     1.11, 0,     426, 0, 1, 0, 0, 1, 1, 100,       370,       240, 1, 1, 0, 1, 0, 1, 0, 1, 0, 1
    40,  1,       370,       190,       190,       -19,  1.04756, 0,     426, 0, 1, 0, 0, 1, 1, 100,       370,       240, 1, 1, 0, 1, 0, 1, 0, 1, 0, 1
    40,  2,       370,       -19,       190,       -19,  1.04756, 0,     426, 0, 1, 0, 0, 1, 1, 100,       370,       240, 1, 1, 0, 1, 0, 1, 0, 1, 0, 1
    40,  3,       370,       -19,       190,       -19,  1.04756, 0,     426, 0, 1, 0, 0, 1, 1, 100,       370,       240, 1, 1, 0, 1, 0, 1, 0, 1, 0, 1
    41,  1,       370,      -0.1,       190,       -19,  1.04755, 0,     426, 0, 1, 0, 0, 1, 1, 100,       370,       240, 1, 1, 0, 1, 0, 1, 0, 1, 0, 1
    41,  2,       370,      -0.6,       190,       -19,  1.04755, 0,     426, 0, 1, 0, 0, 1, 1, 100,       370,       240, 1, 1, 0, 1, 0, 1, 0, 1, 0, 1
    41,  3,       370,      -0.6,       190,       -19,  1.04755, 0,     426, 0, 1, 0, 0, 1, 1, 100,       370,       240, 1, 1, 0, 1, 0, 1, 0, 1, 0, 1
    57,  1,       110,      37.2,       152,       -33,  1.10991, 0,     235, 0, 1, 0, 0, 1, 1, 100,       215,       110, 1, 1, 0, 1, 0, 1, 0, 1, 0, 1
    57,  2,     171.6,       152,       152,       -33,  1.10991, 0,     235, 0, 1, 0, 0, 1, 1, 100,       220,       125, 1, 1, 0, 1, 0, 1, 0, 1, 0, 1
    58,  1,       125,       149,       149,       -33,   1.1097, 0,     235, 0, 1, 0, 0, 1, 1, 100,       225,       125, 1, 1, 0, 1, 0, 1, 0, 1, 0, 1
    58,  2,         0,         0,       149,       -33,        1, 0,     235, 0, 1, 0, 0, 1, 0, 100,       225,       120, 1, 1, 0, 1, 0, 1, 0, 1, 0, 1
    58,  3,       110,       -33,       149,       -33,   1.1097, 0,     235, 0, 1, 0, 0, 1, 1, 100,       225,       110, 1, 1, 0, 1, 0, 1, 0, 1, 0, 1
    59,  1,       225,       149,       149,       -33,     1.11, 0,     235, 0, 1, 0, 0, 1, 1, 100,       225,       110, 1, 1, 0, 1, 0, 1, 0, 1, 0, 1
    60,  1,       535,     305.9,       363,       -47,     1.05, 0,     588, 0, 1, 0, 0, 1, 1, 100,       535,       255, 1, 1, 0, 1, 0, 1, 0, 1, 0, 1
    61,  1,     278.8,      -100,       348,      -100,  1.04992, 0,     588, 0, 1, 0, 0, 1, 1, 100,       560,       250, 1, 1, 0, 1, 0, 1, 0, 1, 0, 1
    70,  1,       129,       -11,       105,       -11,  1.10739, 0,     235, 0, 1, 0, 0, 1, 1, 100,       225,       129, 1, 1, 0, 1, 0, 1, 0, 1, 0, 1
    71,  1,       129,        59,       105,       -11,  1.10739, 0,     235, 0, 1, 0, 0, 1, 1, 100,       225,       129, 1, 1, 0, 1, 0, 1, 0, 1, 0, 1
    71,  2,         0,         0,        99,       -10,        1, 0,     235, 0, 1, 0, 0, 1, 0, 100,       225,       129, 1, 1, 0, 1, 0, 1, 0, 1, 0, 1
    72,  1,         0,         0,       105,       -11,        1, 0,     235, 0, 1, 0, 0, 1, 0, 100,       225,       129, 1, 1, 0, 1, 0, 1, 0, 1, 0, 1
    72,  2,       129,       -11,       105,       -11,  1.04287, 0,     235, 0, 1, 0, 0, 1, 1, 100,       225,       129, 1, 1, 0, 1, 0, 1, 0, 1, 0, 1
    73,  1,       129,       -10,        99,       -10,   1.0429, 0,     235, 0, 1, 0, 0, 1, 1, 100,       225,       129, 1, 1, 0, 1, 0, 1, 0, 1, 0, 1
    73,  2,       129,       -11,       105,       -11,   1.0429, 0,     235, 0, 1, 0, 0, 1, 1, 100,       225,       129, 1, 1, 0, 1, 0, 1, 0, 1, 0, 1
    74,  1,       112,        60,        60,         0,   1.1043, 0,     120, 0, 1, 0, 0, 1, 1, 100,       112,         0, 1, 1, 0, 1, 0, 1, 0, 1, 0, 1
    94,  1,       220,       131,       131,        -6,  1.10247, 0,   270.6, 0, 1, 0, 0, 1, 1, 100,       220,       125, 1, 1, 0, 1, 0, 1, 0, 1, 0, 1
    94,  2,       225,      97.3,       131,        -6,  1.10247, 0,   270.6, 0, 1, 0, 0, 1, 1, 100,       225,       140, 1, 1, 0, 1, 0, 1, 0, 1, 0, 1
    95,  1,       225,       131,       131,        -6,  1.10442, 0,   270.6, 0, 1, 0, 0, 1, 1, 100,       225,       130, 1, 1, 0, 1, 0, 1, 0, 1, 0, 1
    95,  2,       225,       131,       131,        -6,  1.10442, 0,   270.6, 0, 1, 0, 0, 1, 1, 100,       225,       125, 1, 1, 0, 1, 0, 1, 0, 1, 0, 1
    95,  3,       225,      -4.4,       131,        -6,  1.10442, 0,   270.6, 0, 1, 0, 0, 1, 1, 100,       225,       130, 1, 1, 0, 1, 0, 1, 0, 1, 0, 1
    98,  1,       383,      35.2,       213,       -31,     1.05, 0,     426, 0, 1, 0, 0, 1, 1, 100,       383,       220, 1, 1, 0, 1, 0, 1, 0, 1, 0, 1
    98,  2,       380,     -14.8,       119,       -31,     1.05, 0,   435.3, 0, 1, 0, 0, 1, 1, 100,       380,       220, 1, 1, 0, 1, 0, 1, 0, 1, 0, 1
   115,  1,        12,         0,         0,         0,  1.09646, 0,      12, 0, 1, 0, 0, 1, 1, 100,        12,         0, 1, 1, 0, 1, 0, 1, 0, 1, 0, 1
   115,  2,         6,         0,         0,         0,  1.09646, 0,       6, 0, 1, 0, 0, 1, 1, 100,         6,         0, 1, 1, 0, 1, 0, 1, 0, 1, 0, 1
   121,  1,         0,         0,       120,       -10,        1, 0,   270.6, 0, 1, 0, 0, 1, 0, 100,       225,       120, 1, 1, 0, 1, 0, 1, 0, 1, 0, 1
   122,  1,       225,       120,       120,       -10,  1.10922, 0,   270.6, 0, 1, 0, 0, 1, 1, 100,       225,       120, 1, 1, 0, 1, 0, 1, 0, 1, 0, 1
   123,  1,       120,       5.3,        73,        -1,  1.10624, 0,     150, 0, 1, 0, 0, 1, 1, 100,       120,        70, 1, 1, 0, 1, 0, 1, 0, 1, 0, 1
   124,  1,       120,        73,        73,        -1,  1.10639, 0,     150, 0, 1, 0, 0, 1, 1, 100,       120,        70, 1, 1, 0, 1, 0, 1, 0, 1, 0, 1
   134,  1,         0,         0,        80,         0,        1, 0,     150, 0, 1, 0, 0, 1, 0, 100,       120,        70, 1, 1, 0, 1, 0, 1, 0, 1, 0, 1
   135,  1,       120,        80,        80,         0,  1.09923, 0,     150, 0, 1, 0, 0, 1, 1, 100,       120,        70, 1, 1, 0, 1, 0, 1, 0, 1, 0, 1
   136,  1,        80,        31,        31,         0,  1.07793, 0,   117.5, 0, 1, 0, 0, 1, 1, 100,       110,        80, 1, 1, 0, 1, 0, 1, 0, 1, 0, 1
   144,  1,       215,      64.7,       135,       -35,  1.10999, 0,   270.6, 0, 1, 0, 0, 1, 1, 100,       215,       135, 1, 1, 0, 1, 0, 1, 0, 1, 0, 1
   145,  1,       215,       -35,       135,       -35,     1.11, 0,   270.6, 0, 1, 0, 0, 1, 1, 100,       215,       135, 1, 1, 0, 1, 0, 1, 0, 1, 0, 1
   145,  2,       225,       140,       140,       -35,     1.11, 0,   270.6, 0, 1, 0, 0, 1, 1, 100,       225,       135, 1, 1, 0, 1, 0, 1, 0, 1, 0, 1
   146,  1,       225,     -34.1,       140,       -36,  1.04293, 0,   270.6, 0, 1, 0, 0, 1, 1, 100,       225,       135, 1, 1, 0, 1, 0, 1, 0, 1, 0, 1
   146,  2,       220,     -34.1,       137,       -36,  1.04293, 0,   270.6, 0, 1, 0, 0, 1, 1, 100,       220,       135, 1, 1, 0, 1, 0, 1, 0, 1, 0, 1
   152,  1,         0,         0,        72,       -29,        1, 0,     150, 0, 1, 0, 0, 1, 0, 100,       135,      -135, 1, 1, 0, 1, 0, 1, 0, 1, 0, 1
   152,  2,         0,         0,        72,       -29,        1, 0,     150, 0, 1, 0, 0, 1, 0, 100,       135,      -135, 1, 1, 0, 1, 0, 1, 0, 1, 0, 1
   153,  1,         0,         0,        72,       -29,        1, 0,     150, 0, 1, 0, 0, 1, 0, 100,       135,      -135, 1, 1, 0, 1, 0, 1, 0, 1, 0, 1
   153,  2,         0,         0,        72,       -29,        1, 0,     150, 0, 1, 0, 0, 1, 0, 100,       135,      -135, 1, 1, 0, 1, 0, 1, 0, 1, 0, 1
   154,  1,       120,        85,        85,       -15,   1.0916, 0,     150, 0, 1, 0, 0, 1, 1, 100,       120,        94, 1, 1, 0, 1, 0, 1, 0, 1, 0, 1
   155,  1,       120,        85,        85,       -15,   1.0916, 0,     150, 0, 1, 0, 0, 1, 1, 100,       120,        94, 1, 1, 0, 1, 0, 1, 0, 1, 0, 1
   155,  2,         0,         0,        85,       -15,        1, 0,     150, 0, 1, 0, 0, 1, 0, 100,       120,        94, 1, 1, 0, 1, 0, 1, 0, 1, 0, 1
   169,  1,         0,         0,        25,         0,        1, 0,    51.4, 0, 1, 0, 0, 1, 0, 100,        50,        40, 1, 1, 0, 1, 0, 1, 0, 1, 0, 1
   170,  1,         0,         0,        90,       -15,        1, 0,     150, 0, 1, 0, 0, 1, 0, 100,       120,        80, 1, 1, 0, 1, 0, 1, 0, 1, 0, 1
   170,  2,         0,         0,        25,         0,        1, 0,    51.4, 0, 1, 0, 0, 1, 0, 100,        50,        45, 1, 1, 0, 1, 0, 1, 0, 1, 0, 1
   172,  1,       100,       119,       119,       -31,  1.06808, 0,   252.4, 0, 1, 0, 0, 1, 1, 100,       232,       100, 1, 1, 0, 1, 0, 1, 0, 1, 0, 1
   172,  2,         0,         0,       111,       -21,        1, 0,   237.5, 0, 1, 0, 0, 1, 0, 100,       205,       135, 1, 1, 0, 1, 0, 1, 0, 1, 0, 1
   173,  1,         0,         0,       111,       -21,        1, 0,   237.5, 0, 1, 0, 0, 1, 0, 100,       205,       135, 1, 1, 0, 1, 0, 1, 0, 1, 0, 1
   173,  2,         0,         0,       102,       -15,        1, 0,   252.4, 0, 1, 0, 0, 1, 0, 100,       222,        90, 1, 1, 0, 1, 0, 1, 0, 1, 0, 1
   174,  1,        90,       102,       102,       -15,  1.03111, 0,   252.4, 0, 1, 0, 0, 1, 1, 100,       222,        90, 1, 1, 0, 1, 0, 1, 0, 1, 0, 1
   175,  1,        90,      46.7,       102,       -15,  1.03109, 0,   252.4, 0, 1, 0, 0, 1, 1, 100,       222,        90, 1, 1, 0, 1, 0, 1, 0, 1, 0, 1
   175,  2,       100,      20.7,        93,       -10,  1.03109, 0,   252.4, 0, 1, 0, 0, 1, 1, 100,       232,       100, 1, 1, 0, 1, 0, 1, 0, 1, 0, 1
   180,  1,       261,      66.1,       127,       -35,     1.11, 0,   287.3, 0, 1, 0, 0, 1, 1, 100,       261,       104, 1, 1, 0, 1, 0, 1, 0, 1, 0, 1
   180,  2,       261,       127,       127,       -35,     1.11, 0,   287.3, 0, 1, 0, 0, 1, 1, 100,       261,       104, 1, 1, 0, 1, 0, 1, 0, 1, 0, 1
   181,  1,       206,        99,       103,       -17,     1.11, 0,   238.4, 0, 1, 0, 0, 1, 1, 100,       206,       120, 1, 1, 0, 1, 0, 1, 0, 1, 0, 1
   181,  2,       261,       123,       127,       -35,     1.11, 0,   287.3, 0, 1, 0, 0, 1, 1, 100,       261,       104, 1, 1, 0, 1, 0, 1, 0, 1, 0, 1
   182,  1,       235,       -38,       145,       -38,     1.11, 0,   263.9, 0, 1, 0, 0, 1, 1, 100,       235,        94, 1, 1, 0, 1, 0, 1, 0, 1, 0, 1
...